[TITLE]
;;Project Title/Notes
Beta
Anon

[OPTIONS]
;;Option             Value
FLOW_UNITS           CFS
INFILTRATION         HORTON
FLOW_ROUTING         DYNWAVE
LINK_OFFSETS         DEPTH
MIN_SLOPE            0
ALLOW_PONDING        NO
SKIP_STEADY_STATE    NO

START_DATE           10/08/2016
START_TIME           00:00:00
REPORT_START_DATE    10/08/2016
REPORT_START_TIME    00:00:00
END_DATE             10/09/2016
END_TIME             00:00:00
SWEEP_START          01/01
SWEEP_END            12/31
DRY_DAYS             0
REPORT_STEP          00:10:00
WET_STEP             00:01:00
DRY_STEP             24:00:00
ROUTING_STEP         00:00:10 

INERTIAL_DAMPING     PARTIAL
NORMAL_FLOW_LIMITED  FROUDE
FORCE_MAIN_EQUATION  H-W
VARIABLE_STEP        0.75
LENGTHENING_STEP     0
MIN_SURFAREA         12.557
MAX_TRIALS           8
HEAD_TOLERANCE       0.005
SYS_FLOW_TOL         5
LAT_FLOW_TOL         5
MINIMUM_STEP         0.5
THREADS              4

[EVAPORATION]
;;Data Source    Parameters
;;-------------- ----------------
CONSTANT         0.0
DRY_ONLY         NO

[RAINGAGES]
;;Name           Format    Interval SCF      Source    
;;-------------- --------- ------ ------ ----------
RG1 			  CUMULATIVE 0.1      1.0      TIMESERIES 2yr12hr         

[SUBCATCHMENTS]
;;Name           Rain Gage        Outlet           Area     %Imperv  Width    %Slope   CurbLen  SnowPack        
;;-------------- ---------------- ---------------- -------- -------- -------- -------- -------- ----------------
S0               RG1 			  J0               1.904    40.0     1.0      100.0    0.0                      
S1               RG1 			  J2               1.658    42.0     1.0      100.0    0.0                      
S2               RG1 			  J3               2.307    76.0     1.0      100.0    0.0                      
S3               RG1 			  J4               2.293    75.0     1.0      100.0    0.0                      
S4               RG1 			  J5               1.3      90.0     1.0      100.0    0.0                      
S5               RG1 			  J6               1.709    79.0     1.0      100.0    0.0                      
S6               RG1 			  J7               1.19     80.0     1.0      100.0    0.0                      
S7               RG1 			  J8               4.4430000000000005 55.0     1.0      100.0    0.0                      
S8               RG1 			  J9               3.684    77.0     1.0      100.0    0.0                      
S9               RG1 			  J10              1.548    35.0     1.0      100.0    0.0                      
S10              RG1 			  J11              0.518    41.0     1.0      100.0    0.0                      
S11              RG1 			  J12              3.173    49.0     1.0      100.0    0.0                      
S12              RG1 			  J13              2.579    85.0     1.0      100.0    0.0                      
S13              RG1 			  J15              1.208    69.0     1.0      100.0    0.0                      
S14              RG1 			  J16              0.399    93.0     1.0      100.0    0.0                      
S15              RG1 			  J17              1.54     77.0     1.0      100.0    0.0                      
S16              RG1 			  J18              2.391    71.0     1.0      100.0    0.0                      
S17              RG1 			  J19              2.434    16.0     1.0      100.0    0.0                      
S18              RG1 			  J21              2.257    14.0     1.0      100.0    0.0                      
S19              RG1 			  J22              4.1389999999999985 46.0     1.0      100.0    0.0                      
S20              RG1 			  J24              2.707    44.0     1.0      100.0    0.0                      
S21              RG1 			  J25              2.495    42.0     1.0      100.0    0.0                      
S22              RG1 			  J26              0.221    20.0     1.0      100.0    0.0                      
S23              RG1 			  J27              3.037    17.0     1.0      100.0    0.0                      
S24              RG1 			  J28              0.802    9.0      1.0      100.0    0.0                      
S25              RG1 			  J29              1.3019999999999998 24.0     1.0      100.0    0.0                      
S26              RG1 			  J30              1.971    53.0     1.0      100.0    0.0                      
S27              RG1 			  J31              1.315    49.0     1.0      100.0    0.0                      
S28              RG1 			  J34              0.331    40.0     1.0      100.0    0.0                      
S29              RG1 			  J35              1.182    54.0     1.0      100.0    0.0                      
S30              RG1 			  J36              2.742    73.0     1.0      100.0    0.0                      
S31              RG1 			  J37              0.35     57.0     1.0      100.0    0.0                      
S32              RG1 			  J39              1.084    43.0     1.0      100.0    0.0                      
S33              RG1 			  J41              0.275    50.0     1.0      100.0    0.0                      
S34              RG1 			  J42              2.352    38.0     1.0      100.0    0.0                      
S35              RG1 			  J43              1.171    44.0     1.0      100.0    0.0                      
S36              RG1 			  J45              2.645    42.0     1.0      100.0    0.0                      
S37              RG1 			  J46              0.695    44.0     1.0      100.0    0.0                      
S38              RG1 			  J49              2.33     48.0     1.0      100.0    0.0                      
S39              RG1 			  J50              3.353    43.0     1.0      100.0    0.0                      
S40              RG1 			  J51              1.452    57.0     1.0      100.0    0.0                      
S41              RG1 			  J52              2.006    53.0     1.0      100.0    0.0                      
S42              RG1 			  J53              1.735    77.0     1.0      100.0    0.0                      
S43              RG1 			  J54              2.345    84.0     1.0      100.0    0.0                      
S44              RG1 			  J55              0.8959999999999999 82.0     1.0      100.0    0.0                      
S45              RG1 			  J56              2.27     71.0     1.0      100.0    0.0                      
S46              RG1 			  J57              0.271    84.0     1.0      100.0    0.0                      
S47              RG1 			  J59              0.642    92.0     1.0      100.0    0.0                      
S48              RG1 			  J62              1.43     86.0     1.0      100.0    0.0                      
S49              RG1 			  J63              1.319    79.0     1.0      100.0    0.0                      
S50              RG1 			  J64              1.496    50.0     1.0      100.0    0.0                      
S51              RG1 			  J66              0.6920000000000001 14.0     1.0      100.0    0.0                      
S52              RG1 			  J67              2.0580000000000003 43.0     1.0      100.0    0.0                      
S53              RG1 			  J68              0.541    90.0     1.0      100.0    0.0                      
S54              RG1 			  J70              10.886   18.0     1.0      100.0    0.0                      
S55              RG1 			  J72              0.626    63.0     1.0      100.0    0.0                      
S56              RG1 			  J73              4.225    81.0     1.0      100.0    0.0                      
S57              RG1 			  J74              0.16699999999999998 65.0     1.0      100.0    0.0                      
S58              RG1 			  J75              0.203    69.0     1.0      100.0    0.0                      
S59              RG1 			  J76              0.28800000000000003 68.0     1.0      100.0    0.0                      
S60              RG1 			  J77              1.351    58.0     1.0      100.0    0.0                      
S61              RG1 			  J80              0.263    69.0     1.0      100.0    0.0                      
S62              RG1 			  J81              0.585    65.0     1.0      100.0    0.0                      
S63              RG1 			  J82              1.226    49.0     1.0      100.0    0.0                      
S64              RG1 			  J83              5.517    43.0     1.0      100.0    0.0                      
S65              RG1 			  J84              0.453    72.0     1.0      100.0    0.0                      
S66              RG1 			  J85              1.615    66.0     1.0      100.0    0.0                      
S67              RG1 			  J88              1.429    46.0     1.0      100.0    0.0                      
S68              RG1 			  J89              1.805    48.0     1.0      100.0    0.0                      
S69              RG1 			  J91              0.532    66.0     1.0      100.0    0.0                      
S70              RG1 			  J92              2.807    67.0     1.0      100.0    0.0                      
S71              RG1 			  J93              2.6260000000000003 89.0     1.0      100.0    0.0                      
S72              RG1 			  J94              0.141    68.0     1.0      100.0    0.0                      
S73              RG1 			  J95              1.073    75.0     1.0      100.0    0.0                      
S74              RG1 			  J96              0.997    90.0     1.0      100.0    0.0                      
S75              RG1 			  J97              0.37     88.0     1.0      100.0    0.0                      
S76              RG1 			  J98              6.962999999999999 71.0     1.0      100.0    0.0                      
S77              RG1 			  J99              0.5770000000000001 79.0     1.0      100.0    0.0                      
S78              RG1 			  J100             1.844    67.0     1.0      100.0    0.0                      
S79              RG1 			  J101             7.831    73.0     1.0      100.0    0.0                      
S80              RG1 			  J102             2.763    84.0     1.0      100.0    0.0                      
S81              RG1 			  J103             2.337    92.0     1.0      100.0    0.0                      
S82              RG1 			  J104             3.353    80.0     1.0      100.0    0.0                      
S83              RG1 			  J105             5.172999999999999 80.0     1.0      100.0    0.0                      
S84              RG1 			  J106             3.757    78.0     1.0      100.0    0.0                      
S85              RG1 			  ST2              0.98     84.0     1.0      100.0    0.0                      
S86              RG1 			  J107             2.611    70.0     1.0      100.0    0.0                      
S87              RG1 			  J109             7.381    29.0     1.0      100.0    0.0                      
S88              RG1 			  J110             4.996    53.0     1.0      100.0    0.0                      
S89              RG1 			  J112             0.889    35.0     1.0      100.0    0.0                      
S90              RG1 			  J113             0.732    92.0     1.0      100.0    0.0                      
S91              RG1 			  J114             4.025    83.0     1.0      100.0    0.0                      
S92              RG1 			  J115             3.645    83.0     1.0      100.0    0.0                      
S93              RG1 			  J117             4.176    8.0      1.0      100.0    0.0                      
S94              RG1 			  J118             1.943    49.0     1.0      100.0    0.0                      
S95              RG1 			  J119             2.013    21.0     1.0      100.0    0.0                      
S96              RG1 			  J121             0.3670000000000001 53.0     1.0      100.0    0.0                      
S97              RG1 			  J122             0.632    73.0     1.0      100.0    0.0                      
S98              RG1 			  J123             0.417    84.0     1.0      100.0    0.0                      
S99              RG1 			  J124             0.8190000000000001 65.0     1.0      100.0    0.0                      
S100             RG1 			  J125             1.489    76.0     1.0      100.0    0.0                      
S101             RG1 			  J126             2.987    67.0     1.0      100.0    0.0                      
S102             RG1 			  J127             1.539    46.0     1.0      100.0    0.0                      
S103             RG1 			  J128             7.526    15.0     1.0      100.0    0.0                      
S104             RG1 			  J129             0.8270000000000001 17.0     1.0      100.0    0.0                      
S105             RG1 			  J130             3.17     10.0     1.0      100.0    0.0                      
S106             RG1 			  J133             0.373    21.0     1.0      100.0    0.0                      
S107             RG1 			  J134             0.336    14.0     1.0      100.0    0.0                      
S108             RG1 			  J135             1.257    16.0     1.0      100.0    0.0                      
S109             RG1 			  J136             2.641    5.0      1.0      100.0    0.0                      
S110             RG1 			  J137             0.569    22.0     1.0      100.0    0.0                      
S111             RG1 			  J140             5.724    7.0      1.0      100.0    0.0                      
S112             RG1 			  J142             0.8220000000000001 4.0      1.0      100.0    0.0                      
S113             RG1 			  J143             1.181    10.0     1.0      100.0    0.0                      
S114             RG1 			  J144             1.225    13.0     1.0      100.0    0.0                      
S115             RG1 			  J148             0.8140000000000001 8.0      1.0      100.0    0.0                      
S116             RG1 			  J149             4.973    3.0      1.0      100.0    0.0                      
S117             RG1 			  J150             3.35     47.0     1.0      100.0    0.0                      
S118             RG1 			  J151             1.821    44.0     1.0      100.0    0.0                      
S119             RG1 			  J152             1.821    44.0     1.0      100.0    0.0                      
S120             RG1 			  J153             2.349    14.0     1.0      100.0    0.0                      
S121             RG1 			  J154             1.143    10.0     1.0      100.0    0.0                      
S122             RG1 			  J155             5.945    10.0     1.0      100.0    0.0                      
S123             RG1 			  J156             0.411    20.0     1.0      100.0    0.0                      
S124             RG1 			  J157             1.32     60.0     1.0      100.0    0.0                      
S125             RG1 			  J158             1.795    14.0     1.0      100.0    0.0                      
S126             RG1 			  J159             2.352    41.0     1.0      100.0    0.0                      
S127             RG1 			  J160             1.744    39.0     1.0      100.0    0.0                      
S128             RG1 			  J161             0.355    61.0     1.0      100.0    0.0                      
S129             RG1 			  J162             0.268    72.0     1.0      100.0    0.0                      
S130             RG1 			  J164             3.3710000000000004 50.0     1.0      100.0    0.0                      
S131             RG1 			  J165             1.681    54.0     1.0      100.0    0.0                      
S132             RG1 			  J166             3.301    33.0     1.0      100.0    0.0                      
S133             RG1 			  J168             0.916    17.0     1.0      100.0    0.0                      
S134             RG1 			  J169             4.538    17.0     1.0      100.0    0.0                      
S135             RG1 			  J170             1.1      26.0     1.0      100.0    0.0                      
S136             RG1 			  J171             5.774    21.0     1.0      100.0    0.0                      
S137             RG1 			  J172             2.083    64.0     1.0      100.0    0.0                      
S138             RG1 			  J173             4.76     56.0     1.0      100.0    0.0                      
S139             RG1 			  J174             0.393    65.0     1.0      100.0    0.0                      
S140             RG1 			  J175             1.065    51.0     1.0      100.0    0.0                      
S141             RG1 			  J176             0.343    55.0     1.0      100.0    0.0                      
S142             RG1 			  J177             0.5920000000000001 59.0     1.0      100.0    0.0                      
S143             RG1 			  J178             2.682    34.0     1.0      100.0    0.0                      
S144             RG1 			  J179             4.541    52.0     1.0      100.0    0.0                      
S145             RG1 			  J180             2.17     70.0     1.0      100.0    0.0                      
S146             RG1 			  J181             0.452    38.0     1.0      100.0    0.0                      
S147             RG1 			  J182             0.52     27.0     1.0      100.0    0.0                      
S148             RG1 			  J183             0.691    21.0     1.0      100.0    0.0                      
S149             RG1 			  J184             1.271    15.0     1.0      100.0    0.0                      
S150             RG1 			  J185             0.7609999999999999 7.0      1.0      100.0    0.0                      
S151             RG1 			  J186             0.146    11.0     1.0      100.0    0.0                      
S152             RG1 			  J188             0.475    5.0      1.0      100.0    0.0                      
S153             RG1 			  J190             1.065    16.0     1.0      100.0    0.0                      
S154             RG1 			  J192             4.569    52.0     1.0      100.0    0.0                      
S155             RG1 			  J193             2.045    65.0     1.0      100.0    0.0                      
S156             RG1 			  J194             0.784    62.0     1.0      100.0    0.0                      
S157             RG1 			  J195             0.221    52.0     1.0      100.0    0.0                      
S158             RG1 			  J196             0.052000000000000005 49.0     1.0      100.0    0.0                      
S159             RG1 			  J197             0.792    66.0     1.0      100.0    0.0                      
S160             RG1 			  J198             3.508    36.0     1.0      100.0    0.0                      
S161             RG1 			  J199             1.08     69.0     1.0      100.0    0.0                      
S162             RG1 			  J200             0.81     29.0     1.0      100.0    0.0                      
S163             RG1 			  J201             0.584    39.0     1.0      100.0    0.0                      
S164             RG1 			  J203             0.064    39.0     1.0      100.0    0.0                      

[SUBAREAS]
;;Subcatchment   N-Imperv   N-Perv     S-Imperv   S-Perv     PctZero    RouteTo    PctRouted 
;;-------------- ---------- ---------- ---------- ---------- ---------- ---------- ----------
S0               0.01       0.1        0.05       0.05       25         OUTLET    
S1               0.01       0.1        0.05       0.05       25         OUTLET    
S2               0.01       0.1        0.05       0.05       25         OUTLET    
S3               0.01       0.1        0.05       0.05       25         OUTLET    
S4               0.01       0.1        0.05       0.05       25         OUTLET    
S5               0.01       0.1        0.05       0.05       25         OUTLET    
S6               0.01       0.1        0.05       0.05       25         OUTLET    
S7               0.01       0.1        0.05       0.05       25         OUTLET    
S8               0.01       0.1        0.05       0.05       25         OUTLET    
S9               0.01       0.1        0.05       0.05       25         OUTLET    
S10              0.01       0.1        0.05       0.05       25         OUTLET    
S11              0.01       0.1        0.05       0.05       25         OUTLET    
S12              0.01       0.1        0.05       0.05       25         OUTLET    
S13              0.01       0.1        0.05       0.05       25         OUTLET    
S14              0.01       0.1        0.05       0.05       25         OUTLET    
S15              0.01       0.1        0.05       0.05       25         OUTLET    
S16              0.01       0.1        0.05       0.05       25         OUTLET    
S17              0.01       0.1        0.05       0.05       25         OUTLET    
S18              0.01       0.1        0.05       0.05       25         OUTLET    
S19              0.01       0.1        0.05       0.05       25         OUTLET    
S20              0.01       0.1        0.05       0.05       25         OUTLET    
S21              0.01       0.1        0.05       0.05       25         OUTLET    
S22              0.01       0.1        0.05       0.05       25         OUTLET    
S23              0.01       0.1        0.05       0.05       25         OUTLET    
S24              0.01       0.1        0.05       0.05       25         OUTLET    
S25              0.01       0.1        0.05       0.05       25         OUTLET    
S26              0.01       0.1        0.05       0.05       25         OUTLET    
S27              0.01       0.1        0.05       0.05       25         OUTLET    
S28              0.01       0.1        0.05       0.05       25         OUTLET    
S29              0.01       0.1        0.05       0.05       25         OUTLET    
S30              0.01       0.1        0.05       0.05       25         OUTLET    
S31              0.01       0.1        0.05       0.05       25         OUTLET    
S32              0.01       0.1        0.05       0.05       25         OUTLET    
S33              0.01       0.1        0.05       0.05       25         OUTLET    
S34              0.01       0.1        0.05       0.05       25         OUTLET    
S35              0.01       0.1        0.05       0.05       25         OUTLET    
S36              0.01       0.1        0.05       0.05       25         OUTLET    
S37              0.01       0.1        0.05       0.05       25         OUTLET    
S38              0.01       0.1        0.05       0.05       25         OUTLET    
S39              0.01       0.1        0.05       0.05       25         OUTLET    
S40              0.01       0.1        0.05       0.05       25         OUTLET    
S41              0.01       0.1        0.05       0.05       25         OUTLET    
S42              0.01       0.1        0.05       0.05       25         OUTLET    
S43              0.01       0.1        0.05       0.05       25         OUTLET    
S44              0.01       0.1        0.05       0.05       25         OUTLET    
S45              0.01       0.1        0.05       0.05       25         OUTLET    
S46              0.01       0.1        0.05       0.05       25         OUTLET    
S47              0.01       0.1        0.05       0.05       25         OUTLET    
S48              0.01       0.1        0.05       0.05       25         OUTLET    
S49              0.01       0.1        0.05       0.05       25         OUTLET    
S50              0.01       0.1        0.05       0.05       25         OUTLET    
S51              0.01       0.1        0.05       0.05       25         OUTLET    
S52              0.01       0.1        0.05       0.05       25         OUTLET    
S53              0.01       0.1        0.05       0.05       25         OUTLET    
S54              0.01       0.1        0.05       0.05       25         OUTLET    
S55              0.01       0.1        0.05       0.05       25         OUTLET    
S56              0.01       0.1        0.05       0.05       25         OUTLET    
S57              0.01       0.1        0.05       0.05       25         OUTLET    
S58              0.01       0.1        0.05       0.05       25         OUTLET    
S59              0.01       0.1        0.05       0.05       25         OUTLET    
S60              0.01       0.1        0.05       0.05       25         OUTLET    
S61              0.01       0.1        0.05       0.05       25         OUTLET    
S62              0.01       0.1        0.05       0.05       25         OUTLET    
S63              0.01       0.1        0.05       0.05       25         OUTLET    
S64              0.01       0.1        0.05       0.05       25         OUTLET    
S65              0.01       0.1        0.05       0.05       25         OUTLET    
S66              0.01       0.1        0.05       0.05       25         OUTLET    
S67              0.01       0.1        0.05       0.05       25         OUTLET    
S68              0.01       0.1        0.05       0.05       25         OUTLET    
S69              0.01       0.1        0.05       0.05       25         OUTLET    
S70              0.01       0.1        0.05       0.05       25         OUTLET    
S71              0.01       0.1        0.05       0.05       25         OUTLET    
S72              0.01       0.1        0.05       0.05       25         OUTLET    
S73              0.01       0.1        0.05       0.05       25         OUTLET    
S74              0.01       0.1        0.05       0.05       25         OUTLET    
S75              0.01       0.1        0.05       0.05       25         OUTLET    
S76              0.01       0.1        0.05       0.05       25         OUTLET    
S77              0.01       0.1        0.05       0.05       25         OUTLET    
S78              0.01       0.1        0.05       0.05       25         OUTLET    
S79              0.01       0.1        0.05       0.05       25         OUTLET    
S80              0.01       0.1        0.05       0.05       25         OUTLET    
S81              0.01       0.1        0.05       0.05       25         OUTLET    
S82              0.01       0.1        0.05       0.05       25         OUTLET    
S83              0.01       0.1        0.05       0.05       25         OUTLET    
S84              0.01       0.1        0.05       0.05       25         OUTLET    
S85              0.01       0.1        0.05       0.05       25         OUTLET    
S86              0.01       0.1        0.05       0.05       25         OUTLET    
S87              0.01       0.1        0.05       0.05       25         OUTLET    
S88              0.01       0.1        0.05       0.05       25         OUTLET    
S89              0.01       0.1        0.05       0.05       25         OUTLET    
S90              0.01       0.1        0.05       0.05       25         OUTLET    
S91              0.01       0.1        0.05       0.05       25         OUTLET    
S92              0.01       0.1        0.05       0.05       25         OUTLET    
S93              0.01       0.1        0.05       0.05       25         OUTLET    
S94              0.01       0.1        0.05       0.05       25         OUTLET    
S95              0.01       0.1        0.05       0.05       25         OUTLET    
S96              0.01       0.1        0.05       0.05       25         OUTLET    
S97              0.01       0.1        0.05       0.05       25         OUTLET    
S98              0.01       0.1        0.05       0.05       25         OUTLET    
S99              0.01       0.1        0.05       0.05       25         OUTLET    
S100             0.01       0.1        0.05       0.05       25         OUTLET    
S101             0.01       0.1        0.05       0.05       25         OUTLET    
S102             0.01       0.1        0.05       0.05       25         OUTLET    
S103             0.01       0.1        0.05       0.05       25         OUTLET    
S104             0.01       0.1        0.05       0.05       25         OUTLET    
S105             0.01       0.1        0.05       0.05       25         OUTLET    
S106             0.01       0.1        0.05       0.05       25         OUTLET    
S107             0.01       0.1        0.05       0.05       25         OUTLET    
S108             0.01       0.1        0.05       0.05       25         OUTLET    
S109             0.01       0.1        0.05       0.05       25         OUTLET    
S110             0.01       0.1        0.05       0.05       25         OUTLET    
S111             0.01       0.1        0.05       0.05       25         OUTLET    
S112             0.01       0.1        0.05       0.05       25         OUTLET    
S113             0.01       0.1        0.05       0.05       25         OUTLET    
S114             0.01       0.1        0.05       0.05       25         OUTLET    
S115             0.01       0.1        0.05       0.05       25         OUTLET    
S116             0.01       0.1        0.05       0.05       25         OUTLET    
S117             0.01       0.1        0.05       0.05       25         OUTLET    
S118             0.01       0.1        0.05       0.05       25         OUTLET    
S119             0.01       0.1        0.05       0.05       25         OUTLET    
S120             0.01       0.1        0.05       0.05       25         OUTLET    
S121             0.01       0.1        0.05       0.05       25         OUTLET    
S122             0.01       0.1        0.05       0.05       25         OUTLET    
S123             0.01       0.1        0.05       0.05       25         OUTLET    
S124             0.01       0.1        0.05       0.05       25         OUTLET    
S125             0.01       0.1        0.05       0.05       25         OUTLET    
S126             0.01       0.1        0.05       0.05       25         OUTLET    
S127             0.01       0.1        0.05       0.05       25         OUTLET    
S128             0.01       0.1        0.05       0.05       25         OUTLET    