[TITLE]
;;Project Title/Notes
Epsilon

[OPTIONS]
;;Option             Value
FLOW_UNITS           CFS
INFILTRATION         HORTON
FLOW_ROUTING         DYNWAVE
LINK_OFFSETS         DEPTH
MIN_SLOPE            0
ALLOW_PONDING        NO
SKIP_STEADY_STATE    NO

IGNORE_SNOWMELT      YES
IGNORE_GROUNDWATER   YES
START_DATE           01/01/2017
START_TIME           00:00:00
REPORT_START_DATE    01/01/2017
REPORT_START_TIME    00:00:00
END_DATE             01/16/2017
END_TIME             00:00:00
SWEEP_START          01/01
SWEEP_END            12/31
DRY_DAYS             0.000000
REPORT_STEP          00:15:00
WET_STEP             00:01:00
DRY_STEP             00:01:00
ROUTING_STEP         0:00:10 

INERTIAL_DAMPING     PARTIAL
NORMAL_FLOW_LIMITED  SLOPE
FORCE_MAIN_EQUATION  H-W
VARIABLE_STEP        0.75
LENGTHENING_STEP     5
MIN_SURFAREA         12.566000
MAX_TRIALS           8
HEAD_TOLERANCE       0.005
SYS_FLOW_TOL         5
LAT_FLOW_TOL         5
MINIMUM_STEP         0.5
THREADS              1

[EVAPORATION]
;;Data Source    Parameters
;;-------------- ----------------
CONSTANT         0.000000
DRY_ONLY         NO

[RAINGAGES]
;;Name           Format    Interval SCF      Source    
;;-------------- --------- ------ ------ ----------
PG01             CUMULATIVE 0.250000 1.000000 TIMESERIES PG01_40d        
PG02             CUMULATIVE 0.250000 1.000000 TIMESERIES PG02_40d        
PG03             CUMULATIVE 0.250000 1.000000 TIMESERIES PG03_40d        
PG04             CUMULATIVE 0.250000 1.000000 TIMESERIES PG04_40d        
PG05             CUMULATIVE 0.250000 1.000000 TIMESERIES PG05_40d        
PG06             CUMULATIVE 0.250000 1.000000 TIMESERIES PG06_40d        
PG07             CUMULATIVE 0.250000 1.000000 TIMESERIES PG07_40d        

[SUBCATCHMENTS]
;;Name           Rain Gage        Outlet           Area     %Imperv  Width    %Slope   CurbLen  SnowPack        
;;-------------- ---------------- ---------------- -------- -------- -------- -------- -------- ----------------
S001             PG07             007              1428     43       622037   1        0                        
S002             PG04             009              410      43       178596   1        0                        
S003             PG07             012              1034     35       450410   1        0                        
S004             PG07             014              1155     40       503118   1        0                        
S005             PG06             015              291      38       126760   1        0                        
S006             PG02             016              1797     45       782773   1        0                        
S007             PG06             017              1077     42       469141   1        0                        
S008             PG01             023              173.2    75       75446    1        0                        
S009             PG06             024              479.6    41.1     208909   1        0                        
S010             PG02             035              47       38       20473    1        0                        
S011             PG02             036              1593     37       693911   1        0                        
S012             PG05             040              456      40       198634   1        0                        
S013             PG05             041              800      40       348480   1        0                        
S014             PG03             046              432      46       188179   1        0                        
S015             PG03             051              97       40       42253    1        0                        
S016             PG02             054              62       39       27007    1        0                        
S017             PG02             055              716      44       311890   1        0                        
S018             PG03             057              1089     35       474368   1        0                        
S019             PG02             062              1651     35       719176   1        0                        
S020             PG03             064              766      41       333670   1        0                        
S021             PG03             065              1074     50       467834   1        0                        

[SUBAREAS]
;;Subcatchment   N-Imperv   N-Perv     S-Imperv   S-Perv     PctZero    RouteTo    PctRouted 
;;-------------- ---------- ---------- ---------- ---------- ---------- ---------- ----------
S001             0.014      0.2        0.06       0.29       25         PERVIOUS   0         
S002             0.014      0.2        0.06       0.29       25         PERVIOUS   0         
S003             0.014      0.2        0.06       0.29       25         PERVIOUS   0         
S004             0.014      0.2        0.06       0.29       25         PERVIOUS   0         
S005             0.014      0.2        0.06       0.29       25         PERVIOUS   0         
S006             0.014      0.2        0.06       0.29       25         PERVIOUS   0         
S007             0.014      0.2        0.06       0.29       25         PERVIOUS   0         
S008             0.014      0.2        0.06       0.29       25         PERVIOUS   0         
S009             0.014      0.2        0.06       0.29       25         PERVIOUS   0         
S010             0.014      0.2        0.06       0.29       25         PERVIOUS   0         
S011             0.014      0.2        0.06       0.29       25         PERVIOUS   0         
S012             0.014      0.2        0.06       0.29       25         PERVIOUS   0         
S013             0.014      0.2        0.06       0.29       25         PERVIOUS   0         
S014             0.014      0.2        0.06       0.29       25         PERVIOUS   0         
S015             0.014      0.2        0.06       0.29       25         PERVIOUS   0         
S016             0.014      0.2        0.06       0.29       25         PERVIOUS   0         
S017             0.014      0.2        0.06       0.29       25         PERVIOUS   0         
S018             0.014      0.2        0.06       0.29       25         PERVIOUS   0         
S019             0.014      0.2        0.06       0.29       25         PERVIOUS   0         
S020             0.014      0.2        0.06       0.29       25         PERVIOUS   0         
S021             0.014      0.2        0.06       0.29       25         PERVIOUS   0         

[INFILTRATION]
;;Subcatchment   MaxRate    MinRate    Decay      DryTime    MaxInfil  
;;-------------- ---------- ---------- ---------- ---------- ----------
S001             2.9        0.2        4.68       0.018      0         
S002             2.9        0.2        4.68       0.018      0         
S003             2.9        0.2        4.68       0.018      0         
S004             2.9        0.2        4.68       0.018      0         
S005             2.9        0.2        4.68       0.018      0         
S006             2.9        0.2        4.68       0.018      0         
S007             2.9        0.2        4.68       0.018      0         
S008             2.9        0.2        4.68       0.018      0         
S009             2.9        0.2        4.68       0.018      0         
S010             2.9        0.2        4.68       0.018      0         
S011             2.9        0.2        4.68       0.018      0         
S012             2.9        0.2        4.68       0.018      0         
S013             2.9        0.2        4.68       0.018      0         
S014             2.9        0.2        4.68       0.018      0         
S015             2.9        0.2        4.68       0.018      0         
S016             2.9        0.2        4.68       0.018      0         
S017             2.9        0.2        4.68       0.018      0         
S018             2.9        0.2        4.68       0.018      0         
S019             2.9        0.2        4.68       0.018      0         
S020             2.9        0.2        4.68       0.018      0         
S021             2.9        0.2        4.68       0.018      0         

[JUNCTIONS]
;;Name           Elevation  MaxDepth   InitDepth  SurDepth   Aponded   
;;-------------- ---------- ---------- ---------- ---------- ----------
001              566.76     0          0          0          0         
002              581.56     29.1       0          0          0         
003              581.66     29         0          0          0         
004              581.66     29         0          0          0         
005              586.31     29.45      0          0          0         
006              586.36     29.4       0          0          0         
007              1014.14    40         0          0          0         
008              587.26     33.2       0          0          0         
009              823.08     40         0          0          0         
010              587.31     33.15      0          0          0         
011              587.36     33.1       0          0          0         
012              938.16     40         0          0          0         
013              594.36     42.9       0          0          0         
014              971.56     40         0          0          0         
015              800.96     40         0          0          0         
016              1086.56    40         0          0          0         
017              970.22     40         0          0          0         
018              569.76     0          0          0          0         
019              571.76     41         0          0          0         
020              572.46     48         0          0          0         
021              572.46     48         0          0          0         
022              572.46     48         0          0          0         
023              788.15     40         0          0          0         
024              826.72     40         0          0          0         
025              578.76     55.1       0          0          0         
026              578.81     55.05      0          0          0         
027              578.86     55         0          0          0         
028              585.16     52.6       0          0          0         
029              585.21     52.55      0          0          0         
030              585.26     52.5       0          0          0         
031              591.26     49.4       0          0          0         
032              591.31     45.65      0          0          0         
033              591.36     45.6       0          0          0         
034              596.56     47.7       0          0          0         
035              759.16     40         0          0          0         
036              1052.56    40         0          0          0         
037              603.76     41.3       0          0          0         
038              603.81     41.25      0          0          0         
039              603.86     41.2       0          0          0         
040              877.36     40         0          0          0         
041              989.46     40         0          0          0         
042              572.76     0          0          0          0         
043              580.81     46.45      0          0          0         
044              580.86     46.4       0          0          0         
045              583.46     44.3       0          0          0         
046              840.96     40         0          0          0         
047              584.86     43         0          0          0         
048              604.46     22.3       0          0          0         
049              604.51     22.95      0          0          0         
050              604.56     22.9       0          0          0         
051              742.3      40         0          0          0         
052              607.56     23.4       0          0          0         
053              612.86     25         0          0          0         
054              751.96     40         0          0          0         
055              907.67     40         0          0          0         
056              587.16     43.1       0          0          0         
057              1009.7     40         0          0          0         
058              604.66     27         0          0          0         
059              604.71     26.95      0          0          0         
060              604.76     28.9       0          0          0         
061              606.46     26.1       0          0          0         
062              1091.05    40         0          0          0         
063              589.76     40         0          0          0         
064              913.56     40         0          0          0         
065              979.53     40         0          0          0         

[OUTFALLS]
;;Name           Elevation  Type       Stage Data       Gated    Route To        
;;-------------- ---------- ---------- ---------------- -------- ----------------
1                563.76     FREE                        NO                       

[STORAGE]
;;Name           Elev.    MaxDepth   InitDepth  Shape      Curve Name/Params            N/A      Fevap    Psi      Ksat     IMD     
;;-------------- -------- ---------- ----------- ---------- ---------------------------- -------- --------          -------- --------
SU001            578.38   19.98      0          TABULAR    SUC001                       0        0       
SU002            586.26   29.5       0          TABULAR    SUC002                       0        0       
SU003            591.56   42.2       0          TABULAR    SUC003                       0        0       
SU004            597.46   38.3       0          TABULAR    SUC004                       0        0       
SU005            601.36   42.4       0          TABULAR    SUC005                       0        0       
SU006            576.46   56.6       0          TABULAR    SUC006                       0        0       
SU007            616.86   23.9       0          TABULAR    SUC007                       0        0       
SU008            620.36   26.5       0          TABULAR    SUC008                       0        0       
SU009            580.36   46.9       0          TABULAR    SUC009                       0        0       
SU010            580.76   46.5       0          TABULAR    SUC010                       0        0       
SU011            604.56   35.8       0          FUNCTIONAL 0         0         10000    0        0       
SU012            599.06   24.7       0          TABULAR    SUC012                       0        0       

[CONDUITS]
;;Name           From Node        To Node          Length     Roughness  InOffset   OutOffset  InitFlow   MaxFlow   
;;-------------- ---------------- ---------------- ---------- ---------- ---------- ---------- ---------- ----------
001              001              1                3000       0.01       0          0          0          0         
002              SU001            001              400        0.01       0          0          0          0         
003              002              SU001            1840       0.012      0          0          0          0         
004              003              002              500        0.01       0          0          0          0         
005              SU002            004              3621       0.012      0          0          0          0         
006              005              SU002            400        0.011      0          0          0          0         
007              007              006              43704      .013       0          0          0          0         
008              008              SU002            1200       .013       0          0          0          0         
009              009              008              18109      .013       0          0          0          0         
010              010              008              400        0.01       0          0          0          0         
011              SU003            011              5443       .013       0          0          0          0         
012              012              SU003            32880      .013       0          0          0          0         
013              013              SU003            3628       .013       0          0          0          0         
014              014              013              37310      .013       0          0          0          0         
015              SU004            013              873        0.013      0          2.25       0          0         
016              015              SU004            13800      .013       0          0          0          0         
017              SU005            SU004            6262       .013       0          0          0          0         
018              016              SU005            51360      .013       0          0          0          0         
019              017              SU005            35848      .013       0          0          0          0         
020              018              001              3000       0.01       0          0          0          0         
021              019              018              400        0.01       0          0          0          0         
022              020              019              1907       0.013      0          0          0          0         
023              021              020              400        0.01       0          0          0          0         
024              023              022              12797      .013       0          0          0          0         
025              SU006            022              8078       .013       0          0          0          0         
026              024              SU006            20035      .013       0          0          0          0         
027              025              SU006            4809       .013       0          0          0          0         
028              026              025              400        0.011      0          0          0          0         
029              028              027              5699       .013       0          0          0          0         
030              029              028              400        0.011      0          0          0          0         
031              031              030              5130       .013       0          0          0          0         
032              032              031              762.78     0.01       0          0          0          0         
033              034              033              4252       .013       0          0          0          0         
034              SU007            034              230        0.047      0          9.76       0          0         
035              035              SU007            5640       .013       0          0          0          0         
036              036              SU007            44760      .013       0          0          0          0         
037              037              034              4254       .013       0          0          0          0         
038              038              037              214.34     0.01       0          0          0          0         
039              SU008            039              2063       .013       0          0          0          0         
040              040              SU008            24289      .016       0          0          0          0         
041              041              SU008            35880      .013       0          0          0          0         
042              042              018              3000       0.01       0          0          0          0         
043              SU009            042              400        0.01       0          0          0          0         
044              SU010            SU009            1190       0.013      0          0          0          0         
045              043              SU010            400        0.011      0          0          0          0         
046              045              044              6555       .013       0          0          0          0         
047              046              045              21000      .013       0          0          0          0         
048              047              045              3050       0.013      0          0          0          0         
049              048              047              555        .013       0          0          0          0         
050              049              048              310.84     0.01       0          0          0          0         
051              051              050              7658       .013       0          0          0          0         
052              052              050              4220       0.013      0          0          0          0         
053              053              052              6754       .013       0          0          0          0         
054              054              053              6360       .013       0          0          0          0         
055              055              052              27121      .013       0          0          0          0         
056              056              047              5923       0.013      0          0          0          0         
057              SU011            056              255        0.068      2          6          0          0         
058              057              SU011            40685      .013       0          0          0          0         
059              058              SU011            779        0.013      0          0          0          0         
060              059              058              400        0.01       0          0          0          0         
061              061              060              2881       0.013      0          0          0          0         
062              062              061              51505      .013       0          0          0          0         
063              063              056              1352       0.013      0          2          0          0         
064              064              063              28240      .013       0          0          0          0         
065              SU012            063              9699       .013       0          0          0          0         
066              065              SU012            37396      .013       0          0          0          0         

[WEIRS]
;;Name           From Node        To Node          Type         CrestHt    Qcoeff     Gated    EndCon   EndCoeff   Surcharge  RoadWidth  RoadSurf  
;;-------------- ---------------- ---------------- ------------ ---------- ---------- -------- -------- ---------- ---------- ---------- ----------
ISD001           004              003              TRANSVERSE   0          3.33       NO       0        0          YES       
ISD002           006              005              TRANSVERSE   0          3.33       NO       0        0          YES       
ISD003           011              010              TRANSVERSE   0          3.33       NO       0        0          YES       
ISD004           022              021              TRANSVERSE   0          3.33       NO       0        0          YES       
ISD005           027              026              TRANSVERSE   0          3.33       NO       0        0          YES       
ISD006           030              029              TRANSVERSE   0          3.33       NO       0        0          YES       
ISD007           033              032              TRANSVERSE   0          3.33       NO       0        0          YES       
ISD008           039              038              TRANSVERSE   0          3.33       NO       0        0          YES       
ISD009           044              043              TRANSVERSE   0          3.33       NO       0        0          YES       
ISD010           050              049              TRANSVERSE   0          3.33       NO       0        0          YES       
ISD011           060              059              TRANSVERSE   0          3.33       NO       0        0          YES       

[XSECTIONS]
;;Link           Shape        Geom1            Geom2      Geom3      Geom4      Barrels    Culvert   
;;-------------- ------------ ---------------- ---------- ---------- ---------- ---------- ----------
001              CIRCULAR     18               0          0          0          1                    
002              CIRCULAR     14               0          0          0          1                    
003              RECT_CLOSED  13.45            13.4       0          0          1          0         
004              CIRCULAR     14.7             0          0          0          1                    
005              RECT_CLOSED  13.45            13.4       0          0          1          0         
006              CIRCULAR     9                0          0          0          1          0         
007              CIRCULAR     20               0          0          0          1                    
008              CIRCULAR     14               0          0          0          1                    
009              CIRCULAR     20               0          0          0          1                    
010              CIRCULAR     14               0          0          0          1                    
011              CIRCULAR     14               0          0          0          1                    
012              CIRCULAR     20               0          0          0          1                    
013              CIRCULAR     14               0          0          0          1                    
014              CIRCULAR     20               0          0          0          1                    
015              CIRCULAR     11.5             0          0          0          1          0         
016              CIRCULAR     20               0          0          0          1                    
017              CIRCULAR     11.5             0          0          0          1                    
018              CIRCULAR     20               0          0          0          1                    
019              CIRCULAR     20               0          0          0          1                    
020              CIRCULAR     18               0          0          0          1                    
021              CIRCULAR     16               0          0          0          1                    
022              CIRCULAR     15.5             0          0          0          1          0         
023              CIRCULAR     15.5             0          0          0          1                    
024              CIRCULAR     20               0          0          0          1                    
025              CIRCULAR     15.5             0          0          0          1                    
026              CIRCULAR     20               0          0          0          1                    
027              CIRCULAR     15.5             0          0          0          1                    
028              CIRCULAR     15.5             0          0          0          1          0         
029              CIRCULAR     15.5             0          0          0          1                    
030              CIRCULAR     15.5             0          0          0          1          0         
031              CIRCULAR     15.5             0          0          0          1                    
032              CIRCULAR     15.5             0          0          0          1                    
033              CIRCULAR     15.5             0          0          0          1                    
034              RECT_CLOSED  4                13.2       0          0          1          0         
035              CIRCULAR     20               0          0          0          1                    
036              CIRCULAR     20               0          0          0          1                    
037              CIRCULAR     14               0          0          0          1                    
038              CIRCULAR     12.25            0          0          0          1                    
039              CIRCULAR     12.25            0          0          0          1                    
040              CIRCULAR     7.5              0          0          0          1                    
041              CIRCULAR     20               0          0          0          1                    
042              CIRCULAR     18               0          0          0          1                    
043              CIRCULAR     16               0          0          0          1                    
044              CIRCULAR     15.5             0          0          0          1          0         
045              CIRCULAR     15.5             0          0          0          1          0         
046              CIRCULAR     15.5             0          0          0          1                    
047              CIRCULAR     20               0          0          0          1                    